<?xml version="1.0" encoding="UTF-8"?>

<!-- generated on Fri 28 Sep 2018 10:44:12 AM -05 by Netedit Version 0.32.0
<?xml version="1.0" encoding="UTF-8"?>

<configuration xmlns:xsi="http://www.w3.org/2001/XMLSchema-instance" xsi:noNamespaceSchemaLocation="http://sumo.dlr.de/xsd/netconvertConfiguration.xsd">

    <input>
        <sumo-net-file value="bogota2.net.xml"/>
    </input>

    <output>
        <output-file value="bogota2.net.xml"/>
    </output>

    <processing>
        <no-turnarounds value="true"/>
        <offset.disable-normalization value="true"/>
        <lefthand value="false"/>
        <junctions.corner-detail value="0"/>
        <rectangular-lane-cut value="false"/>
        <walkingareas value="false"/>
    </processing>

</configuration>
-->

<net version="0.27" xmlns:xsi="http://www.w3.org/2001/XMLSchema-instance" xsi:noNamespaceSchemaLocation="http://sumo.dlr.de/xsd/net_file.xsd">

    <location netOffset="-602720.60,-511690.62" convBoundary="574.95,165.95,1329.42,1421.09" origBoundary="-74.073954,4.620355,-74.059108,4.649444" projParameter="+proj=utm +zone=18 +ellps=WGS84 +datum=WGS84 +units=m +no_defs"/>

    <type id="highway.bridleway" priority="1" numLanes="1" speed="2.78" allow="pedestrian" oneway="1" width="2.00"/>
    <type id="highway.bus_guideway" priority="1" numLanes="1" speed="8.33" allow="bus" oneway="1"/>
    <type id="highway.cycleway" priority="1" numLanes="1" speed="5.56" allow="bicycle" oneway="0" width="1.00"/>
    <type id="highway.footway" priority="1" numLanes="1" speed="2.78" allow="pedestrian" oneway="1" width="2.00"/>
    <type id="highway.ford" priority="1" numLanes="1" speed="2.78" allow="army" oneway="0"/>
    <type id="highway.living_street" priority="3" numLanes="1" speed="2.78" disallow="tram rail_urban rail rail_electric ship" oneway="0"/>
    <type id="highway.motorway" priority="13" numLanes="2" speed="44.44" allow="private emergency authority army vip passenger hov taxi bus coach delivery truck trailer motorcycle evehicle custom1 custom2" oneway="1"/>
    <type id="highway.motorway_link" priority="12" numLanes="1" speed="22.22" allow="private emergency authority army vip passenger hov taxi bus coach delivery truck trailer motorcycle evehicle custom1 custom2" oneway="1"/>
    <type id="highway.path" priority="1" numLanes="1" speed="2.78" allow="bicycle pedestrian" oneway="1" width="2.00"/>
    <type id="highway.pedestrian" priority="1" numLanes="1" speed="2.78" allow="pedestrian" oneway="1" width="2.00"/>
    <type id="highway.primary" priority="9" numLanes="2" speed="27.78" disallow="tram rail_urban rail rail_electric ship" oneway="0"/>
    <type id="highway.primary_link" priority="8" numLanes="1" speed="22.22" disallow="tram rail_urban rail rail_electric ship" oneway="0"/>
    <type id="highway.raceway" priority="14" numLanes="2" speed="83.33" allow="vip" oneway="0"/>
    <type id="highway.residential" priority="4" numLanes="1" speed="13.89" disallow="tram rail_urban rail rail_electric ship" oneway="0"/>
    <type id="highway.secondary" priority="7" numLanes="2" speed="27.78" disallow="tram rail_urban rail rail_electric ship" oneway="0"/>
    <type id="highway.secondary_link" priority="6" numLanes="1" speed="22.22" disallow="tram rail_urban rail rail_electric ship" oneway="0"/>
    <type id="highway.service" priority="2" numLanes="1" speed="5.56" allow="delivery bicycle pedestrian" oneway="0"/>
    <type id="highway.services" priority="1" numLanes="1" speed="8.33" disallow="tram rail_urban rail rail_electric ship" oneway="0"/>
    <type id="highway.stairs" priority="1" numLanes="1" speed="1.39" allow="pedestrian" oneway="1" width="2.00"/>
    <type id="highway.step" priority="1" numLanes="1" speed="1.39" allow="pedestrian" oneway="1" width="2.00"/>
    <type id="highway.steps" priority="1" numLanes="1" speed="1.39" allow="pedestrian" oneway="1" width="2.00"/>
    <type id="highway.tertiary" priority="6" numLanes="1" speed="22.22" disallow="tram rail_urban rail rail_electric ship" oneway="0"/>
    <type id="highway.tertiary_link" priority="5" numLanes="1" speed="22.22" disallow="tram rail_urban rail rail_electric ship" oneway="0"/>
    <type id="highway.track" priority="1" numLanes="1" speed="5.56" disallow="tram rail_urban rail rail_electric ship" oneway="0"/>
    <type id="highway.trunk" priority="11" numLanes="2" speed="27.78" disallow="tram rail_urban rail rail_electric bicycle pedestrian ship" oneway="0"/>
    <type id="highway.trunk_link" priority="10" numLanes="1" speed="22.22" disallow="tram rail_urban rail rail_electric bicycle pedestrian ship" oneway="0"/>
    <type id="highway.unclassified" priority="5" numLanes="1" speed="13.89" disallow="tram rail_urban rail rail_electric ship" oneway="0"/>
    <type id="highway.unsurfaced" priority="1" numLanes="1" speed="8.33" disallow="tram rail_urban rail rail_electric ship" oneway="0"/>
    <type id="railway.light_rail" priority="15" numLanes="1" speed="27.78" allow="rail_urban" oneway="1"/>
    <type id="railway.preserved" priority="15" numLanes="1" speed="27.78" allow="rail" oneway="1"/>
    <type id="railway.rail" priority="15" numLanes="1" speed="83.33" allow="rail rail_electric" oneway="1"/>
    <type id="railway.subway" priority="15" numLanes="1" speed="27.78" allow="rail_urban" oneway="1"/>
    <type id="railway.tram" priority="15" numLanes="1" speed="13.89" allow="tram" oneway="1"/>

    <edge id=":4679430562_0" function="internal">
        <lane id=":4679430562_0_0" index="0" disallow="tram rail_urban rail rail_electric ship" speed="13.89" length="4.82" shape="1103.28,679.09 1104.67,679.63 1105.24,680.35 1105.01,681.24 1103.98,682.31"/>
    </edge>
    <edge id=":AK10CL53_0" function="internal">
        <lane id=":AK10CL53_0_0" index="0" disallow="tram rail_urban rail rail_electric ship" speed="20.84" length="4.99" shape="1078.46,1251.55 1077.77,1250.36 1076.87,1249.68 1075.75,1249.50 1074.42,1249.83"/>
    </edge>
    <edge id=":AK10CL53_1" function="internal">
        <lane id=":AK10CL53_1_0" index="0" disallow="tram rail_urban rail rail_electric ship" speed="13.89" length="4.82" shape="1078.46,1251.55 1078.76,1250.09 1079.37,1249.40 1080.29,1249.47 1081.52,1250.31"/>
    </edge>
    <edge id=":AK10CL53_2" function="internal">
        <lane id=":AK10CL53_2_0" index="0" disallow="tram rail_urban rail rail_electric ship" speed="20.84" length="5.04" shape="1083.11,1246.15 1081.97,1246.88 1081.32,1247.81 1081.17,1248.96 1081.52,1250.31"/>
    </edge>
    <edge id=":AK10CL53_3" function="internal">
        <lane id=":AK10CL53_3_0" index="0" disallow="tram rail_urban rail rail_electric ship" speed="27.78" length="9.36" shape="1083.11,1246.15 1074.42,1249.83"/>
        <lane id=":AK10CL53_3_1" index="1" disallow="tram rail_urban rail rail_electric ship" speed="27.78" length="9.36" shape="1081.76,1243.14 1073.20,1246.76"/>
    </edge>
    <edge id=":AK13CL45_0" function="internal">
        <lane id=":AK13CL45_0_0" index="0" disallow="tram rail_urban rail rail_electric ship" speed="8.33" length="5.50" shape="829.94,400.24 829.44,398.72 828.61,397.92 827.46,397.83 825.99,398.45"/>
    </edge>
    <edge id=":AK13CL45_1" function="internal">
        <lane id=":AK13CL45_1_0" index="0" disallow="tram rail_urban rail rail_electric ship" speed="8.33" length="9.04" shape="829.94,400.24 829.09,397.25 827.87,395.48 826.27,394.94 824.29,395.62"/>
    </edge>
    <edge id=":AK13CL45_2" function="internal">
        <lane id=":AK13CL45_2_0" index="0" disallow="tram rail_urban rail rail_electric ship" speed="8.33" length="25.36" shape="829.94,400.24 825.47,375.20"/>
        <lane id=":AK13CL45_2_1" index="1" disallow="tram rail_urban rail rail_electric ship" speed="8.33" length="25.36" shape="833.19,399.64 828.73,374.67"/>
        <lane id=":AK13CL45_2_2" index="2" disallow="tram rail_urban rail rail_electric ship" speed="8.33" length="25.36" shape="836.43,399.05 831.99,374.15"/>
    </edge>
    <edge id=":AK13CL45_5" function="internal">
        <lane id=":AK13CL45_5_0" index="0" disallow="tram rail_urban rail rail_electric ship" speed="8.33" length="23.18" shape="836.43,399.05 834.91,389.57 834.29,382.63 834.57,378.23 835.76,376.37"/>
    </edge>
    <edge id=":AK13CL45_6" function="internal">
        <lane id=":AK13CL45_6_0" index="0" disallow="tram rail_urban rail rail_electric ship" speed="8.33" length="20.24" shape="836.43,399.05 835.21,391.00 834.87,385.05 835.42,381.21 836.87,379.47"/>
    </edge>
    <edge id=":AK13CL45_7" function="internal">
        <lane id=":AK13CL45_7_0" index="0" disallow="tram rail_urban rail rail_electric ship" speed="18.05" length="17.27" shape="840.64,390.07 836.03,392.01 833.07,393.74 830.22,395.73 825.99,398.45"/>
        <lane id=":AK13CL45_7_1" index="1" disallow="tram rail_urban rail rail_electric ship" speed="18.05" length="17.27" shape="839.53,386.96 834.75,388.97 831.65,390.75 828.69,392.80 824.29,395.62"/>
    </edge>
    <edge id=":AK13CL45_9" function="internal">
        <lane id=":AK13CL45_9_0" index="0" disallow="tram rail_urban rail rail_electric ship" speed="8.33" length="13.10" shape="817.91,384.97 821.53,382.61 824.00,380.20 825.31,377.73 825.47,375.20"/>
    </edge>
    <edge id=":AK13CL45_10" function="internal">
        <lane id=":AK13CL45_10_0" index="0" disallow="tram rail_urban rail rail_electric ship" speed="8.33" length="15.50" shape="817.91,384.97 822.89,381.94 826.35,379.22 828.29,376.79 828.73,374.67"/>
    </edge>
    <edge id=":AK13CL45_11" function="internal">
        <lane id=":AK13CL45_11_0" index="0" disallow="tram rail_urban rail rail_electric ship" speed="8.33" length="19.52" shape="817.91,384.97 823.04,382.07 826.59,380.13 830.26,378.46 835.76,376.37"/>
        <lane id=":AK13CL45_11_1" index="1" disallow="tram rail_urban rail rail_electric ship" speed="8.33" length="19.52" shape="819.61,387.80 824.57,385.00 828.00,383.12 831.55,381.50 836.87,379.47"/>
    </edge>
    <edge id=":AK13CL46_0" function="internal">
        <lane id=":AK13CL46_0_0" index="0" disallow="tram rail_urban rail rail_electric ship" speed="11.11" length="5.03" shape="847.37,495.74 846.95,494.42 846.21,493.57 845.15,493.17 843.77,493.24"/>
    </edge>
    <edge id=":AK13CL46_1" function="internal">
        <lane id=":AK13CL46_1_0" index="0" disallow="tram rail_urban rail rail_electric ship" speed="8.33" length="9.74" shape="847.37,495.74 845.71,486.21"/>
        <lane id=":AK13CL46_1_1" index="1" disallow="tram rail_urban rail rail_electric ship" speed="8.33" length="9.74" shape="850.63,495.20 848.96,485.61"/>
        <lane id=":AK13CL46_1_2" index="2" disallow="tram rail_urban rail rail_electric ship" speed="8.33" length="9.74" shape="853.88,494.67 852.20,485.02"/>
    </edge>
    <edge id=":AK13CL46_4" function="internal">
        <lane id=":AK13CL46_4_0" index="0" disallow="tram rail_urban rail rail_electric ship" speed="13.89" length="12.97" shape="856.49,490.71 843.77,493.24"/>
    </edge>
    <edge id=":AK13CL46_5" function="internal">
        <lane id=":AK13CL46_5_0" index="0" disallow="tram rail_urban rail rail_electric ship" speed="11.11" length="1.59" shape="855.84,487.47 854.46,487.55 854.26,487.48"/>
    </edge>
    <edge id=":AK13CL46_7" function="internal">
        <lane id=":AK13CL46_7_0" index="0" speed="11.11" length="3.43" shape="854.26,487.48 853.39,487.17 852.64,486.33 852.20,485.02"/>
    </edge>
    <edge id=":AK13CL46_6" function="internal">
        <lane id=":AK13CL46_6_0" index="0" disallow="tram rail_urban rail rail_electric ship" speed="11.11" length="5.21" shape="843.14,490.00 844.48,489.53 845.36,488.75 845.77,487.64 845.71,486.21"/>
    </edge>
    <edge id=":AK13CL47_0" function="internal">
        <lane id=":AK13CL47_0_0" index="0" disallow="tram rail_urban rail rail_electric ship" speed="11.12" length="5.47" shape="867.73,618.83 867.26,617.36 866.44,616.56 865.27,616.43 863.76,616.98"/>
    </edge>
    <edge id=":AK13CL47_1" function="internal">
        <lane id=":AK13CL47_1_0" index="0" disallow="tram rail_urban rail rail_electric ship" speed="11.12" length="9.04" shape="867.73,618.83 866.93,615.90 865.72,614.14 864.09,613.56 862.04,614.16"/>
    </edge>
    <edge id=":AK13CL47_2" function="internal">
        <lane id=":AK13CL47_2_0" index="0" disallow="tram rail_urban rail rail_electric ship" speed="8.33" length="15.83" shape="867.73,618.83 865.14,603.22"/>
        <lane id=":AK13CL47_2_1" index="1" disallow="tram rail_urban rail rail_electric ship" speed="8.33" length="15.83" shape="870.99,618.29 868.40,602.68"/>
        <lane id=":AK13CL47_2_2" index="2" disallow="tram rail_urban rail rail_electric ship" speed="8.33" length="15.83" shape="874.24,617.75 871.65,602.14"/>
    </edge>
    <edge id=":AK13CL47_5" function="internal">
        <lane id=":AK13CL47_5_0" index="0" disallow="tram rail_urban rail rail_electric ship" speed="11.12" length="17.05" shape="879.09,609.52 874.71,612.03 871.55,613.46 868.32,614.78 863.76,616.98"/>
        <lane id=":AK13CL47_5_1" index="1" disallow="tram rail_urban rail rail_electric ship" speed="11.12" length="17.05" shape="877.34,606.72 872.97,609.23 869.81,610.64 866.59,611.96 862.04,614.16"/>
    </edge>
    <edge id=":AK13CL47_7" function="internal">
        <lane id=":AK13CL47_7_0" index="0" disallow="tram rail_urban rail rail_electric ship" speed="8.33" length="12.63" shape="877.34,606.72 873.97,608.23 871.36,608.05 869.50,606.21 868.40,602.68"/>
    </edge>
    <edge id=":AK13CL47_8" function="internal">
        <lane id=":AK13CL47_8_0" index="0" disallow="tram rail_urban rail rail_electric ship" speed="8.33" length="5.57" shape="875.60,603.92 874.11,604.59 872.96,604.51 872.14,603.69 871.65,602.14"/>
    </edge>
    <edge id=":AK13CL48_0" function="internal">
        <lane id=":AK13CL48_0_0" index="0" disallow="tram rail_urban rail rail_electric ship" speed="8.33" length="9.56" shape="886.18,729.42 884.57,719.97"/>
        <lane id=":AK13CL48_0_1" index="1" disallow="tram rail_urban rail rail_electric ship" speed="8.33" length="9.56" shape="889.43,728.86 887.83,719.43"/>
        <lane id=":AK13CL48_0_2" index="2" disallow="tram rail_urban rail rail_electric ship" speed="8.33" length="9.56" shape="892.68,728.29 891.08,718.89"/>
    </edge>
    <edge id=":AK13CL48_3" function="internal">
        <lane id=":AK13CL48_3_0" index="0" disallow="tram rail_urban rail rail_electric ship" speed="8.33" length="5.13" shape="892.68,728.29 892.65,726.92 893.08,725.85 893.97,725.09 895.33,724.62"/>
    </edge>
    <edge id=":AK13CL48_4" function="internal">
        <lane id=":AK13CL48_4_0" index="0" disallow="tram rail_urban rail rail_electric ship" speed="11.11" length="5.09" shape="882.02,723.63 883.33,723.22 884.20,722.47 884.61,721.39 884.57,719.97"/>
    </edge>
    <edge id=":AK13CL48_5" function="internal">
        <lane id=":AK13CL48_5_0" index="0" disallow="tram rail_urban rail rail_electric ship" speed="11.11" length="10.45" shape="882.53,726.89 885.25,726.05 887.04,724.52 887.90,722.32 887.83,719.43"/>
    </edge>
    <edge id=":AK13CL48_6" function="internal">
        <lane id=":AK13CL48_6_0" index="0" disallow="tram rail_urban rail rail_electric ship" speed="11.11" length="13.48" shape="882.53,726.89 886.29,725.77 888.63,724.23 890.95,722.64 894.69,721.38"/>
    </edge>
    <edge id=":AK13CL49_0" function="internal">
        <lane id=":AK13CL49_0_0" index="0" disallow="tram rail_urban rail rail_electric ship" speed="8.33" length="5.04" shape="905.38,841.59 905.00,840.26 904.29,839.38 903.24,838.96 901.85,838.99"/>
    </edge>
    <edge id=":AK13CL49_1" function="internal">
        <lane id=":AK13CL49_1_0" index="0" disallow="tram rail_urban rail rail_electric ship" speed="8.33" length="7.93" shape="905.38,841.59 904.80,838.83 903.93,836.93 902.77,835.90 901.31,835.73"/>
    </edge>
    <edge id=":AK13CL49_2" function="internal">
        <lane id=":AK13CL49_2_0" index="0" disallow="tram rail_urban rail rail_electric ship" speed="8.33" length="9.69" shape="905.38,841.59 904.04,832.12"/>
        <lane id=":AK13CL49_2_1" index="1" disallow="tram rail_urban rail rail_electric ship" speed="8.33" length="9.69" shape="908.65,841.15 907.30,831.56"/>
        <lane id=":AK13CL49_2_2" index="2" disallow="tram rail_urban rail rail_electric ship" speed="8.33" length="9.69" shape="911.92,840.71 910.55,830.99"/>
    </edge>
    <edge id=":AK13CL49_5" function="internal">
        <lane id=":AK13CL49_5_0" index="0" disallow="tram rail_urban rail rail_electric ship" speed="8.33" length="12.96" shape="914.63,836.94 901.85,838.99"/>
        <lane id=":AK13CL49_5_1" index="1" disallow="tram rail_urban rail rail_electric ship" speed="8.33" length="12.96" shape="914.13,833.68 901.31,835.73"/>
    </edge>
    <edge id=":AK13CL49_7" function="internal">
        <lane id=":AK13CL49_7_0" index="0" disallow="tram rail_urban rail rail_electric ship" speed="8.33" length="1.57" shape="914.13,833.68 912.56,833.81"/>
    </edge>
    <edge id=":AK13CL49_8" function="internal">
        <lane id=":AK13CL49_8_0" index="0" disallow="tram rail_urban rail rail_electric ship" speed="8.33" length="1.62" shape="914.13,833.68 912.77,833.69 912.53,833.59"/>
    </edge>
    <edge id=":AK13CL49_9" function="internal">
        <lane id=":AK13CL49_9_0" index="0" speed="8.33" length="6.31" shape="912.56,833.81 911.34,833.91 909.27,833.63 907.92,832.85 907.30,831.56"/>
    </edge>
    <edge id=":AK13CL49_10" function="internal">
        <lane id=":AK13CL49_10_0" index="0" speed="8.33" length="3.47" shape="912.53,833.59 911.72,833.24 910.98,832.34 910.55,830.99"/>
    </edge>
    <edge id=":AK13CL50_0" function="internal">
        <lane id=":AK13CL50_0_0" index="0" disallow="tram rail_urban rail rail_electric ship" speed="18.05" length="10.23" shape="919.79,945.75 918.11,935.47"/>
        <lane id=":AK13CL50_0_1" index="1" disallow="tram rail_urban rail rail_electric ship" speed="18.05" length="10.23" shape="923.03,945.12 921.38,935.03"/>
        <lane id=":AK13CL50_0_2" index="2" disallow="tram rail_urban rail rail_electric ship" speed="18.05" length="10.23" shape="926.26,944.49 924.65,934.58"/>
    </edge>
    <edge id=":AK13CL50_3" function="internal">
        <lane id=":AK13CL50_3_0" index="0" disallow="tram rail_urban rail rail_electric ship" speed="20.84" length="8.50" shape="926.26,944.49 925.91,941.55 926.14,939.33 926.93,937.81 928.31,937.00"/>
    </edge>
    <edge id=":AK13CL50_4" function="internal">
        <lane id=":AK13CL50_4_0" index="0" disallow="tram rail_urban rail rail_electric ship" speed="20.84" length="5.83" shape="926.26,944.49 926.20,942.97 926.67,941.75 927.66,940.82 929.17,940.19"/>
    </edge>
    <edge id=":AK13CL50_5" function="internal">
        <lane id=":AK13CL50_5_0" index="0" disallow="tram rail_urban rail rail_electric ship" speed="11.11" length="5.96" shape="915.47,940.08 916.83,939.55 917.72,938.60 918.15,937.24 918.11,935.47"/>
    </edge>
    <edge id=":AK13CL50_6" function="internal">
        <lane id=":AK13CL50_6_0" index="0" disallow="tram rail_urban rail rail_electric ship" speed="11.11" length="8.59" shape="915.47,940.08 918.25,939.27 920.16,938.16 921.20,936.74 921.38,935.03"/>
    </edge>
    <edge id=":AK13CL50_7" function="internal">
        <lane id=":AK13CL50_7_0" index="0" disallow="tram rail_urban rail rail_electric ship" speed="13.89" length="13.30" shape="915.47,940.08 928.31,937.00"/>
        <lane id=":AK13CL50_7_1" index="1" disallow="tram rail_urban rail rail_electric ship" speed="13.89" length="13.30" shape="916.14,943.32 929.17,940.19"/>
    </edge>
    <edge id=":AK13CL51_0" function="internal">
        <lane id=":AK13CL51_0_0" index="0" disallow="tram rail_urban rail rail_electric ship" speed="20.84" length="5.42" shape="940.53,1054.10 940.08,1052.60 939.29,1051.77 938.15,1051.60 936.67,1052.09"/>
    </edge>
    <edge id=":AK13CL51_1" function="internal">
        <lane id=":AK13CL51_1_0" index="0" disallow="tram rail_urban rail rail_electric ship" speed="27.78" length="10.00" shape="940.53,1054.10 938.91,1044.37"/>
        <lane id=":AK13CL51_1_1" index="1" disallow="tram rail_urban rail rail_electric ship" speed="27.78" length="10.00" shape="943.79,1053.60 942.15,1043.74"/>
        <lane id=":AK13CL51_1_2" index="2" disallow="tram rail_urban rail rail_electric ship" speed="27.78" length="10.00" shape="947.05,1053.11 945.39,1043.11"/>
    </edge>
    <edge id=":AK13CL51_4" function="internal">
        <lane id=":AK13CL51_4_0" index="0" disallow="tram rail_urban rail rail_electric ship" speed="13.89" length="15.15" shape="951.26,1047.63 947.14,1049.44 944.04,1050.00 940.90,1050.49 936.67,1052.09"/>
        <lane id=":AK13CL51_4_1" index="1" disallow="tram rail_urban rail rail_electric ship" speed="13.89" length="15.15" shape="949.43,1044.88 945.42,1046.62 942.39,1047.14 939.32,1047.59 935.20,1049.13"/>
    </edge>
    <edge id=":AK13CL51_6" function="internal">
        <lane id=":AK13CL51_6_0" index="0" disallow="tram rail_urban rail rail_electric ship" speed="20.84" length="8.99" shape="949.43,1044.88 946.59,1046.16 944.43,1046.39 942.95,1045.59 942.15,1043.74"/>
    </edge>
    <edge id=":AK13CL51_7" function="internal">
        <lane id=":AK13CL51_7_0" index="0" disallow="tram rail_urban rail rail_electric ship" speed="20.84" length="5.52" shape="949.43,1044.88 947.93,1045.47 946.75,1045.38 945.91,1044.59 945.39,1043.11"/>
    </edge>
    <edge id=":AK13CL52_0" function="internal">
        <lane id=":AK13CL52_0_0" index="0" disallow="tram rail_urban rail rail_electric ship" speed="20.84" length="5.50" shape="957.13,1164.46 956.65,1163.03 955.81,1162.22 954.61,1162.04 953.06,1162.48"/>
    </edge>
    <edge id=":AK13CL52_1" function="internal">
        <lane id=":AK13CL52_1_0" index="0" disallow="tram rail_urban rail rail_electric ship" speed="27.78" length="13.98" shape="957.13,1164.46 954.90,1150.56"/>
        <lane id=":AK13CL52_1_1" index="1" disallow="tram rail_urban rail rail_electric ship" speed="27.78" length="13.98" shape="960.38,1163.89 958.17,1150.09"/>
        <lane id=":AK13CL52_1_2" index="2" disallow="tram rail_urban rail rail_electric ship" speed="27.78" length="13.98" shape="963.63,1163.32 961.43,1149.61"/>
    </edge>
    <edge id=":AK13CL52_4" function="internal">
        <lane id=":AK13CL52_4_0" index="0" disallow="tram rail_urban rail rail_electric ship" speed="20.84" length="12.55" shape="963.63,1163.32 963.09,1158.90 963.20,1155.45 963.95,1152.97 965.34,1151.46"/>
    </edge>
    <edge id=":AK13CL52_5" function="internal">
        <lane id=":AK13CL52_5_0" index="0" disallow="tram rail_urban rail rail_electric ship" speed="13.89" length="16.69" shape="967.04,1154.28 963.85,1155.75 960.42,1156.70 956.36,1157.78 951.28,1159.65"/>
    </edge>
    <edge id=":AK13CL52_6" function="internal">
        <lane id=":AK13CL52_6_0" index="0" disallow="tram rail_urban rail rail_electric ship" speed="20.84" length="12.65" shape="967.04,1154.28 963.64,1155.74 961.03,1155.52 959.20,1153.64 958.17,1150.09"/>
    </edge>
    <edge id=":AK13CL52_7" function="internal">
        <lane id=":AK13CL52_7_0" index="0" disallow="tram rail_urban rail rail_electric ship" speed="20.84" length="9.20" shape="967.04,1154.28 964.99,1155.02 963.38,1154.48 962.19,1152.68 961.43,1149.61"/>
    </edge>
    <edge id=":AK13CL52A_0" function="internal">
        <lane id=":AK13CL52A_0_0" index="0" disallow="tram rail_urban rail rail_electric ship" speed="27.78" length="9.67" shape="965.43,1211.74 963.75,1202.21"/>
        <lane id=":AK13CL52A_0_1" index="1" disallow="tram rail_urban rail rail_electric ship" speed="27.78" length="9.67" shape="968.68,1211.17 967.00,1201.64"/>
        <lane id=":AK13CL52A_0_2" index="2" disallow="tram rail_urban rail rail_electric ship" speed="27.78" length="9.67" shape="971.93,1210.59 970.25,1201.07"/>
    </edge>
    <edge id=":AK13CL52A_3" function="internal">
        <lane id=":AK13CL52A_3_0" index="0" disallow="tram rail_urban rail rail_electric ship" speed="20.84" length="11.52" shape="975.36,1206.22 972.20,1207.03 969.75,1206.54 968.02,1204.75 967.00,1201.64"/>
    </edge>
    <edge id=":AK13CL52A_4" function="internal">
        <lane id=":AK13CL52A_4_0" index="0" disallow="tram rail_urban rail rail_electric ship" speed="20.84" length="5.29" shape="974.09,1203.17 972.64,1203.55 971.52,1203.32 970.72,1202.50 970.25,1201.07"/>
    </edge>
    <edge id=":AK13CL53_0" function="internal">
        <lane id=":AK13CL53_0_0" index="0" disallow="tram rail_urban rail rail_electric ship" speed="18.05" length="5.18" shape="977.43,1279.91 976.98,1278.53 976.22,1277.62 975.15,1277.17 973.77,1277.20"/>
    </edge>
    <edge id=":AK13CL53_1" function="internal">
        <lane id=":AK13CL53_1_0" index="0" disallow="tram rail_urban rail rail_electric ship" speed="18.05" length="8.01" shape="977.43,1279.91 976.72,1277.11 975.78,1275.18 974.61,1274.13 973.22,1273.94"/>
    </edge>
    <edge id=":AK13CL53_2" function="internal">
        <lane id=":AK13CL53_2_0" index="0" disallow="tram rail_urban rail rail_electric ship" speed="18.05" length="19.58" shape="977.43,1279.91 974.08,1260.59"/>
        <lane id=":AK13CL53_2_1" index="1" disallow="tram rail_urban rail rail_electric ship" speed="18.05" length="19.58" shape="980.67,1279.31 977.33,1260.02"/>
        <lane id=":AK13CL53_2_2" index="2" disallow="tram rail_urban rail rail_electric ship" speed="18.05" length="19.58" shape="983.92,1278.71 980.58,1259.44"/>
    </edge>
    <edge id=":AK13CL53_5" function="internal">
        <lane id=":AK13CL53_5_0" index="0" disallow="tram rail_urban rail rail_electric ship" speed="27.78" length="12.83" shape="986.43,1275.13 973.77,1277.20"/>
        <lane id=":AK13CL53_5_1" index="1" disallow="tram rail_urban rail rail_electric ship" speed="27.78" length="12.83" shape="985.88,1271.88 973.22,1273.94"/>
    </edge>
    <edge id=":AK13CL53_7" function="internal">
        <lane id=":AK13CL53_7_0" index="0" disallow="tram rail_urban rail rail_electric ship" speed="27.78" length="5.01" shape="971.56,1264.20 972.86,1263.76 973.72,1263.01 974.12,1261.96 974.08,1260.59"/>
    </edge>
    <edge id=":AK13CL53_8" function="internal">
        <lane id=":AK13CL53_8_0" index="0" disallow="tram rail_urban rail rail_electric ship" speed="27.78" length="7.85" shape="971.56,1264.20 974.28,1263.50 976.15,1262.57 977.17,1261.41 977.33,1260.02"/>
    </edge>
    <edge id=":AK13CL53_9" function="internal">
        <lane id=":AK13CL53_9_0" index="0" disallow="tram rail_urban rail rail_electric ship" speed="27.78" length="12.85" shape="971.56,1264.20 984.21,1261.96"/>
        <lane id=":AK13CL53_9_1" index="1" disallow="tram rail_urban rail rail_electric ship" speed="27.78" length="12.85" shape="972.11,1267.45 984.76,1265.22"/>
    </edge>
    <edge id=":AK14CL45_0" function="internal">
        <lane id=":AK14CL45_0_0" index="0" disallow="tram rail_urban rail rail_electric ship" speed="18.05" length="5.96" shape="678.63,435.93 678.09,434.14 677.28,432.94 676.18,432.32 674.81,432.30"/>
    </edge>
    <edge id=":AK14CL45_1" function="internal">
        <lane id=":AK14CL45_1_0" index="0" disallow="tram rail_urban rail rail_electric ship" speed="18.05" length="8.87" shape="678.63,435.93 677.83,432.72 676.83,430.50 675.63,429.28 674.23,429.05"/>
    </edge>
    <edge id=":AK14CL45_2" function="internal">
        <lane id=":AK14CL45_2_0" index="0" disallow="tram rail_urban rail rail_electric bicycle pedestrian ship" speed="27.78" length="22.78" shape="678.63,435.93 674.86,413.41"/>
        <lane id=":AK14CL45_2_1" index="1" disallow="tram rail_urban rail rail_electric bicycle pedestrian ship" speed="27.78" length="22.78" shape="681.86,435.26 678.12,412.85"/>
    </edge>
    <edge id=":AK14CL45_4" function="internal">
        <lane id=":AK14CL45_4_0" index="0" disallow="tram rail_urban rail rail_electric bicycle pedestrian ship" speed="8.33" length="5.06" shape="709.52,426.43 708.19,426.86 707.33,427.61 706.94,428.68 707.03,430.06"/>
    </edge>
    <edge id=":AK14CL45_5" function="internal">
        <lane id=":AK14CL45_5_0" index="0" disallow="tram rail_urban rail rail_electric bicycle pedestrian ship" speed="8.33" length="7.96" shape="709.52,426.43 706.77,427.11 704.90,428.06 703.91,429.26 703.80,430.73"/>
    </edge>
    <edge id=":AK14CL45_6" function="internal">
        <lane id=":AK14CL45_6_0" index="0" disallow="tram rail_urban rail rail_electric ship" speed="8.33" length="35.23" shape="709.52,426.43 674.81,432.30"/>
        <lane id=":AK14CL45_6_1" index="1" disallow="tram rail_urban rail rail_electric ship" speed="8.33" length="35.23" shape="709.00,423.17 674.23,429.05"/>
    </edge>
    <edge id=":AK14CL45_8" function="internal">
        <lane id=":AK14CL45_8_0" index="0" disallow="tram rail_urban rail rail_electric ship" speed="8.33" length="5.58" shape="703.18,408.55 703.67,410.03 704.49,411.01 705.65,411.49 707.14,411.48"/>
    </edge>
    <edge id=":AK14CL45_9" function="internal">
        <lane id=":AK14CL45_9_0" index="0" disallow="tram rail_urban rail rail_electric ship" speed="8.33" length="8.39" shape="703.18,408.55 703.93,411.45 704.92,413.45 706.16,414.54 707.65,414.74"/>
    </edge>
    <edge id=":AK14CL45_10" function="internal">
        <lane id=":AK14CL45_10_0" index="0" disallow="tram rail_urban rail rail_electric bicycle pedestrian ship" speed="8.33" length="21.91" shape="703.18,408.55 707.03,430.06"/>
        <lane id=":AK14CL45_10_1" index="1" disallow="tram rail_urban rail rail_electric bicycle pedestrian ship" speed="8.33" length="21.91" shape="699.93,409.11 703.80,430.73"/>
    </edge>
    <edge id=":AK14CL45_12" function="internal">
        <lane id=":AK14CL45_12_0" index="0" disallow="tram rail_urban rail rail_electric ship" speed="8.33" length="35.44" shape="672.11,417.04 707.14,411.48"/>
        <lane id=":AK14CL45_12_1" index="1" disallow="tram rail_urban rail rail_electric ship" speed="8.33" length="35.44" shape="672.68,420.29 707.65,414.74"/>
    </edge>
    <edge id=":AK14CL45A_0" function="internal">