<additional>
	<tlLogic id="tls_14_45" type="static" programID="plan2_tls_14_45" offset="0">
		<phase duration="63" state="GGGGrrrrGGGGrr"/>
		<phase duration="3"  state="YYYYrrrrYYYYrr"/>
		<phase duration="3"  state="rrrrrrrrrrrrrr"/>
		<phase duration="2"  state="rrrruuuurrrruu"/>
		<phase duration="38" state="rrrrGGGGrrrrGG"/>
		<phase duration="3"  state="rrrrYYYYrrrrYY"/>
		<phase duration="2"  state="rrrrrrrrrrrrrr"/>
		<phase duration="3"  state="uuuurrrruuuurr"/>
		<phase duration="3"  state="GGGGrrrrGGGGrr"/>
	</tlLogic>
	<tlLogic id="tls_14_45" type="static" programID="plan3_tls_14_45" offset="0">
		<phase duration="55" state="GGGGrrrrGGGGrr"/>
		<phase duration="3"  state="YYYYrrrrYYYYrr"/>
		<phase duration="3"  state="rrrrrrrrrrrrrr"/>
		<phase duration="2"  state="rrrruuuurrrruu"/>
		<phase duration="49" state="rrrrGGGGrrrrGG"/>
		<phase duration="3"  state="rrrrYYYYrrrrYY"/>
		<phase duration="2"  state="rrrrrrrrrrrrrr"/>
		<phase duration="3"  state="uuuurrrruuuurr"/>
	</tlLogic>
	<tlLogic id="tls_14_45" type="static" programID="plan4_tls_14_45" offset="0">
		<phase duration="57" state="GGGGrrrrGGGGrr"/>
		<phase duration="3"  state="YYYYrrrrYYYYrr"/>
		<phase duration="4"  state="rrrrrrrrrrrrrr"/>
		<phase duration="2"  state="rrrruuuurrrruu"/>
		<phase duration="44" state="rrrrGGGGrrrrGG"/>
		<phase duration="3"  state="rrrrYYYYrrrrYY"/>
		<phase duration="1"  state="rrrrrrrrrrrrrr"/>
		<phase duration="3"  state="uuuurrrruuuurr"/>
		<phase duration="3"  state="GGGGrrrrGGGGrr"/>
	</tlLogic>

	<WAUT startProg="plan2_tls_14_45" refTime="0" id="prog_tls_14_45">
        <wautSwitch to="plan3_tls_14_45" time="18000"/>
        <wautSwitch to="plan4_tls_14_45" time="32400"/>
        <wautSwitch to="plan2_tls_14_45" time="0"/>
    </WAUT>

    <wautJunction junctionID="tls_14_45" wautID="prog_tls_14_45"/>



    <tlLogic id="tls_14_47" type="static" programID="plan2_tls_14_47" offset="0">
		<phase duration="3"  state="rrrrrrrrrr"/>
		<phase duration="2"  state="uuuurrrruu"/>
		<phase duration="67" state="GGGGrrrrGG"/>
		<phase duration="3"  state="YYYYrrrrYY"/>
		<phase duration="2"  state="rrrrrrrrrr"/>
		<phase duration="2"  state="rrrruuuurr"/>
		<phase duration="39" state="rrrrGGGGrr"/>
		<phase duration="2"  state="rrrrYYYYrr"/>
	</tlLogic>
	<tlLogic id="tls_14_47" type="static" programID="plan3_tls_14_47" offset="0">
		<phase duration="2"  state="rrrrYYYYrr"/>
		<phase duration="2"  state="rrrrrrrrrr"/>
		<phase duration="2"  state="uuuurrrruu"/>
		<phase duration="69" state="GGGGrrrrGG"/>
		<phase duration="3"  state="YYYYrrrrYY"/>
		<phase duration="2"  state="rrrrrrrrrr"/>
		<phase duration="2"  state="rrrruuuurr"/>
		<phase duration="37" state="rrrrGGGGrr"/>
		<phase duration="1"  state="rrrrYYYYrr"/>
	</tlLogic>
	<tlLogic id="tls_14_47" type="static" programID="plan4_tls_14_47" offset="0">
		<phase duration="75" state="GGGGrrrrGG"/>
		<phase duration="3"  state="YYYYrrrrYY"/>
		<phase duration="2"  state="rrrrrrrrrr"/>
		<phase duration="2"  state="rrrruuuurr"/>
		<phase duration="31" state="rrrrGGGGrr"/>
		<phase duration="3"  state="rrrrYYYYrr"/>
		<phase duration="2"  state="rrrrrrrrrr"/>
		<phase duration="2"  state="uuuurrrruu"/>
	</tlLogic>

	<WAUT startProg="plan2_tls_14_47" refTime="0" id="prog_tls_14_47">
        <wautSwitch to="plan3_tls_14_47" time="18000"/>
        <wautSwitch to="plan4_tls_14_47" time="32400"/>
        <wautSwitch to="plan2_tls_14_47" time="0"/>
    </WAUT>

    <wautJunction junctionID="tls_14_47" wautID="prog_tls_14_47"/>



    <tlLogic id="tls_14_49" type="static" programID="plan2_tls_14_49" offset="0">
		<phase duration="4"  state="rrrrGGrr"/>
		<phase duration="3"  state="rrrrYYrr"/>
		<phase duration="2"  state="rrrrrrrr"/>
		<phase duration="2"  state="uuuurruu"/>
		<phase duration="66" state="GGGGrrGG"/>
		<phase duration="3"  state="YYYYrrYY"/>
		<phase duration="1"  state="rrrrrrrr"/>
		<phase duration="2"  state="rrrruurr"/>
		<phase duration="37" state="rrrrGGrr"/>
	</tlLogic>
	<tlLogic id="tls_14_49" type="static" programID="plan3_tls_14_49" offset="0">
		<phase duration="2"  state="rrrrGGrr"/>
		<phase duration="3"  state="rrrrYYrr"/>
		<phase duration="2"  state="rrrrrrrr"/>
		<phase duration="2"  state="uuuurruu"/>
		<phase duration="64" state="GGGGrrGG"/>
		<phase duration="3"  state="YYYYrrYY"/>
		<phase duration="1"  state="rrrrrrrr"/>
		<phase duration="2"  state="rrrruurr"/>
		<phase duration="41" state="rrrrGGrr"/>
	</tlLogic>
	<tlLogic id="tls_14_49" type="static" programID="plan4_tls_14_49" offset="0">		
		<phase duration="68" state="GGGGrrGG"/>
		<phase duration="3"  state="YYYYrrYY"/>
		<phase duration="1"  state="rrrrrrrr"/>
		<phase duration="2"  state="rrrruurr"/>
		<phase duration="39" state="rrrrGGrr"/>
		<phase duration="3"  state="rrrrYYrr"/>
		<phase duration="2"  state="rrrrrrrr"/>
		<phase duration="2"  state="uuuurruu"/>
	</tlLogic>

	<WAUT startProg="plan2_tls_14_49" refTime="0" id="prog_tls_14_49">
        <wautSwitch to="plan3_tls_14_49" time="18000"/>
        <wautSwitch to="plan4_tls_14_49" time="32400"/>
        <wautSwitch to="plan2_tls_14_49" time="0"/>
    </WAUT>

    <wautJunction junctionID="tls_14_49" wautID="prog_tls_14_49"/>


    <tlLogic id="tls_14_51" type="static" programID="plan2_tls_14_51" offset="0">
		<phase duration="3"  state="rrrrrrrr"/>
		<phase duration="2"  state="rruuuuuu"/>
		<phase duration="67" state="rrGGGGGG"/>
		<phase duration="3"  state="rrYYYYYY"/>
		<phase duration="2"  state="rrrrrrrr"/>
		<phase duration="2"  state="uurrrrrr"/>
		<phase duration="39" state="GGrrrrrr"/>
		<phase duration="2"  state="YYrrrrrr"/>
	</tlLogic>
	<tlLogic id="tls_14_51" type="static" programID="plan3_tls_14_51" offset="0">
		<phase duration="2"  state="YYrrrrrr"/>
		<phase duration="2"  state="rrrrrrrr"/>
		<phase duration="2"  state="rruuuuuu"/>
		<phase duration="69" state="rrGGGGGG"/>
		<phase duration="3"  state="rrYYYYYY"/>
		<phase duration="2"  state="rrrrrrrr"/>
		<phase duration="2"  state="uurrrrrr"/>
		<phase duration="37" state="GGrrrrrr"/>
		<phase duration="1"  state="YYrrrrrr"/>
	</tlLogic>
	<tlLogic id="tls_14_51" type="static" programID="plan4_tls_14_51" offset="0">
		<phase duration="75" state="rrGGGGGG"/>
		<phase duration="3"  state="rrYYYYYY"/>
		<phase duration="2"  state="rrrrrrrr"/>
		<phase duration="2"  state="uurrrrrr"/>
		<phase duration="31" state="GGrrrrrr"/>
		<phase duration="3"  state="YYrrrrrr"/>
		<phase duration="2"  state="rrrrrrrr"/>
		<phase duration="2"  state="rruuuuuu"/>
	</tlLogic>

	<WAUT startProg="plan2_tls_14_51" refTime="0" id="prog_tls_14_51">
        <wautSwitch to="plan3_tls_14_51" time="18000"/>
        <wautSwitch to="plan4_tls_14_51" time="32400"/>
        <wautSwitch to="plan2_tls_14_51" time="0"/>
    </WAUT>

    <wautJunction junctionID="tls_14_51" wautID="prog_tls_14_51"/>



    <tlLogic id="tls_14_53" type="static" programID="plan2_tls_14_53" offset="0">
		<phase duration="3"  state="rrrrrrrrrrrrrrrrr"/>
		<phase duration="2"  state="uuuurrrrruuuurrrr"/>
		<phase duration="67" state="GGGGrrrrrGGGGrrrr"/>
		<phase duration="3"  state="YYYYrrrrrYYYYrrrr"/>
		<phase duration="2"  state="rrrrrrrrrrrrrrrrr"/>
		<phase duration="2"  state="rrrruuuuurrrruuuu"/>
		<phase duration="39" state="rrrrGGGGGrrrrGGGG"/>
		<phase duration="2"  state="rrrrYYYYYrrrrYYYY"/>
	</tlLogic>
	<tlLogic id="tls_14_53" type="static" programID="plan3_tls_14_53" offset="0">
		<phase duration="2"  state="rrrrYYYYYrrrrYYYY"/>
		<phase duration="2"  state="rrrrrrrrrrrrrrrrr"/>
		<phase duration="2"  state="uuuurrrrruuuurrrr"/>
		<phase duration="69" state="GGGGrrrrrGGGGrrrr"/>
		<phase duration="3"  state="YYYYrrrrrYYYYrrrr"/>
		<phase duration="2"  state="rrrrrrrrrrrrrrrrr"/>
		<phase duration="2"  state="rrrruuuuurrrruuuu"/>
		<phase duration="37" state="rrrrGGGGGrrrrGGGG"/>
		<phase duration="1"  state="rrrrYYYYYrrrrYYYY"/>
	</tlLogic>
	<tlLogic id="tls_14_53" type="static" programID="plan4_tls_14_53" offset="0">
		<phase duration="75" state="GGGGrrrrrGGGGrrrr"/>
		<phase duration="3"  state="YYYYrrrrrYYYYrrrr"/>
		<phase duration="2"  state="rrrrrrrrrrrrrrrrr"/>
		<phase duration="2"  state="rrrruuuuurrrruuuu"/>
		<phase duration="31" state="rrrrGGGGGrrrrGGGG"/>
		<phase duration="3"  state="rrrrYYYYYrrrrYYYY"/>
		<phase duration="2"  state="rrrrrrrrrrrrrrrrr"/>
		<phase duration="2"  state="uuuurrrrruuuurrrr"/>
	</tlLogic>

	<WAUT startProg="plan2_tls_14_53" refTime="0" id="prog_tls_14_53">
        <wautSwitch to="plan3_tls_14_53" time="18000"/>
        <wautSwitch to="plan4_tls_14_53" time="32400"/>
        <wautSwitch to="plan2_tls_14_53" time="0"/>
    </WAUT>

    <wautJunction junctionID="tls_14_53" wautID="prog_tls_14_53"/>



    <tlLogic id="tls_13_45" type="static" programID="plan2_tls_13_45" offset="0">
		<phase duration="9"  state="rrrrrrrrrrrrr"/>
		<phase duration="2"  state="uuuuuuurrrrrr"/>
		<phase duration="46" state="GGGGGGGrrrrrr"/>
		<phase duration="3"  state="YYYYYYYrrrrrr"/>
		<phase duration="2"  state="rrrrrrrrrrrrr"/>
		<phase duration="2"  state="rrrrrrruurrrr"/>
		<phase duration="2"  state="rrrrrrrGGuuuu"/>
		<phase duration="37" state="rrrrrrrGGGGGG"/>
		<phase duration="3"  state="rrrrrrrYYGGGG"/>
		<phase duration="4"  state="rrrrrrrrrYYYY"/>
		<phase duration="10" state="rrrrrrrrrrrrr"/>
	</tlLogic>
	<tlLogic id="tls_13_45" type="static" programID="plan3_tls_13_45" offset="0">
		<phase duration="5"  state="rrrrrrrrrrrrr"/>
		<phase duration="2"  state="uuuuuuurrrrrr"/>
		<phase duration="43" state="GGGGGGGrrrrrr"/>
		<phase duration="3"  state="YYYYYYYrrrrrr"/>
		<phase duration="2"  state="rrrrrrrrrrrrr"/>
		<phase duration="2"  state="rrrrrrruurrrr"/>
		<phase duration="2"  state="rrrrrrrGGuuuu"/>
		<phase duration="40" state="rrrrrrrGGGGGG"/>
		<phase duration="3"  state="rrrrrrrYYGGGG"/>
		<phase duration="4"  state="rrrrrrrrrYYYY"/>
		<phase duration="14" state="rrrrrrrrrrrrr"/>
	</tlLogic>
	<tlLogic id="tls_13_45" type="static" programID="plan4_tls_13_45" offset="0">
		<phase duration="1"  state="rrrrrrrrrrrrr"/>
		<phase duration="2"  state="uuuuuuurrrrrr"/>
		<phase duration="49" state="GGGGGGGrrrrrr"/>
		<phase duration="3"  state="YYYYYYYrrrrrr"/>
		<phase duration="2"  state="rrrrrrrrrrrrr"/>
		<phase duration="2"  state="rrrrrrruurrrr"/>
		<phase duration="2"  state="rrrrrrrGGuuuu"/>
		<phase duration="34" state="rrrrrrrGGGGGG"/>
		<phase duration="3"  state="rrrrrrrYYGGGG"/>
		<phase duration="4"  state="rrrrrrrrrYYYY"/>
		<phase duration="18" state="rrrrrrrrrrrrr"/>
	</tlLogic>

	<WAUT startProg="plan2_tls_13_45" refTime="0" id="prog_tls_13_45">
        <wautSwitch to="plan3_tls_13_45" time="18000"/>
        <wautSwitch to="plan4_tls_13_45" time="32400"/>
        <wautSwitch to="plan2_tls_13_45" time="0"/>
    </WAUT>

    <wautJunction junctionID="tls_13_45" wautID="prog_tls_13_45"/>




    <tlLogic id="tls_13_46_47" type="static" programID="plan2_tls_13_46_47" offset="0">
		<phase duration="15" state="rrrrrrrrrrrrGGGG"/>
		<phase duration="3"  state="rrrrrrrrrrrrYYYY"/>
		<phase duration="3"  state="rrrrrrrrrrrrrrrr"/>
		<phase duration="2"  state="uuuurrruuuuurrrr"/>
		<phase duration="48" state="GGGGrrrGGGGGrrrr"/>
		<phase duration="3"  state="YYYYrrrYYYYYrrrr"/>
		<phase duration="2"  state="rrrrrrrrrrrruuuu"/>
		<phase duration="2"  state="rrrrrrrrrrrrGGGG"/>
		<phase duration="2"  state="rrrruuurrrrrGGGG"/>
		<phase duration="27" state="rrrrGGGrrrrrGGGG"/>
		<phase duration="3"  state="rrrrYYYrrrrrGGGG"/>
		<phase duration="10" state="rrrrrrrrrrrrGGGG"/>
	</tlLogic>
	<tlLogic id="tls_13_46_47" type="static" programID="plan3_tls_13_46_47" offset="0">
		<phase duration="10" state="rrrrrrrrrrrrGGGG"/>
		<phase duration="3"  state="rrrrrrrrrrrrYYYY"/>
		<phase duration="3"  state="rrrrrrrrrrrrrrrr"/>
		<phase duration="2"  state="uuuurrruuuuurrrr"/>
		<phase duration="49" state="GGGGrrrGGGGGrrrr"/>
		<phase duration="3"  state="YYYYrrrYYYYYrrrr"/>
		<phase duration="2"  state="rrrrrrrrrrrruuuu"/>
		<phase duration="2"  state="rrrrrrrrrrrrGGGG"/>
		<phase duration="2"  state="rrrruuurrrrrGGGG"/>
		<phase duration="19" state="rrrrGGGrrrrrGGGG"/>
		<phase duration="3"  state="rrrrYYYrrrrrGGGG"/>
		<phase duration="22" state="rrrrrrrrrrrrGGGG"/>
	</tlLogic>
	<tlLogic id="tls_13_46_47" type="static" programID="plan4_tls_13_46_47" offset="0">
		<phase duration="3" state="rrrrrrrrrrrrGGGG"/>
		<phase duration="3"  state="rrrrrrrrrrrrYYYY"/>
		<phase duration="3"  state="rrrrrrrrrrrrrrrr"/>
		<phase duration="2"  state="uuuurrruuuuurrrr"/>
		<phase duration="48" state="GGGGrrrGGGGGrrrr"/>
		<phase duration="3"  state="YYYYrrrYYYYYrrrr"/>
		<phase duration="2"  state="rrrrrrrrrrrruuuu"/>
		<phase duration="2"  state="rrrrrrrrrrrrGGGG"/>
		<phase duration="2"  state="rrrruuurrrrrGGGG"/>
		<phase duration="24" state="rrrrGGGrrrrrGGGG"/>
		<phase duration="3"  state="rrrrYYYrrrrrGGGG"/>
		<phase duration="25" state="rrrrrrrrrrrrGGGG"/>
	</tlLogic>

	<WAUT startProg="plan2_tls_13_46_47" refTime="0" id="prog_tls_13_46_47">
        <wautSwitch to="plan3_tls_13_46_47" time="18000"/>
        <wautSwitch to="plan4_tls_13_46_47" time="32400"/>
        <wautSwitch to="plan2_tls_13_46_47" time="0"/>
    </WAUT>

    <wautJunction junctionID="tls_13_46_47" wautID="prog_tls_13_46_47"/>



    <tlLogic id="tls_13_49_50" type="static" programID="plan2_tls_13_49_50" offset="0">
		<phase duration="18" state="rrrrrGGGGrrrrrGGGG"/>
		<phase duration="3"  state="rrrrrYYYYrrrrrYYYY"/>
		<phase duration="2"  state="uuuuurrrruuuuurrrr"/>
		<phase duration="51" state="GGGGGrrrrGGGGGrrrr"/>
		<phase duration="3"  state="YYYYYrrrrYYYYYrrrr"/>
		<phase duration="2"  state="rrrrruuuurrrrruuuu"/>
		<phase duration="41" state="rrrrrGGGGrrrrrGGGG"/>
	</tlLogic>
	<tlLogic id="tls_13_49_50" type="static" programID="plan3_tls_13_49_50" offset="0">
		<phase duration="11" state="rrrrrGGGGrrrrrGGGG"/>
		<phase duration="3"  state="rrrrrYYYYrrrrrYYYY"/>
		<phase duration="2"  state="uuuuurrrruuuuurrrr"/>
		<phase duration="51" state="GGGGGrrrrGGGGGrrrr"/>
		<phase duration="3"  state="YYYYYrrrrYYYYYrrrr"/>
		<phase duration="2"  state="rrrrruuuurrrrruuuu"/>
		<phase duration="48" state="rrrrrGGGGrrrrrGGGG"/>
	</tlLogic>
	<tlLogic id="tls_13_49_50" type="static" programID="plan4_tls_13_49_50" offset="0">
		<phase duration="5" state="rrrrrGGGGrrrrrGGGG"/>
		<phase duration="3"  state="rrrrrYYYYrrrrrYYYY"/>
		<phase duration="2"  state="uuuuurrrruuuuurrrr"/>
		<phase duration="50" state="GGGGGrrrrGGGGGrrrr"/>
		<phase duration="3"  state="YYYYYrrrrYYYYYrrrr"/>
		<phase duration="2"  state="rrrrruuuurrrrruuuu"/>
		<phase duration="55" state="rrrrrGGGGrrrrrGGGG"/>
	</tlLogic>

	<WAUT startProg="plan2_tls_13_49_50" refTime="0" id="prog_tls_13_49_50">
        <wautSwitch to="plan3_tls_13_49_50" time="18000"/>
        <wautSwitch to="plan4_tls_13_49_50" time="32400"/>
        <wautSwitch to="plan2_tls_13_49_50" time="0"/>
    </WAUT>

    <wautJunction junctionID="tls_13_49_50" wautID="prog_tls_13_49_50"/>



    <tlLogic id="tls_13_51" type="static" programID="plan2_tls_13_51" offset="0">
		<phase duration="18" state="rrrrGGGG"/>
		<phase duration="3"  state="rrrrYYYY"/>
		<phase duration="2"  state="uuuurrrr"/>
		<phase duration="51" state="GGGGrrrr"/>
		<phase duration="3"  state="YYYYrrrr"/>
		<phase duration="2"  state="rrrruuuu"/>
		<phase duration="41" state="rrrrGGGG"/>
	</tlLogic>
	<tlLogic id="tls_13_51" type="static" programID="plan3_tls_13_51" offset="0">
		<phase duration="11" state="rrrrGGGG"/>
		<phase duration="3"  state="rrrrYYYY"/>
		<phase duration="2"  state="uuuurrrr"/>
		<phase duration="51" state="GGGGrrrr"/>
		<phase duration="3"  state="YYYYrrrr"/>
		<phase duration="2"  state="rrrruuuu"/>
		<phase duration="48" state="rrrrGGGG"/>
	</tlLogic>
	<tlLogic id="tls_13_51" type="static" programID="plan4_tls_13_51" offset="0">
		<phase duration="5"  state="rrrrGGGG"/>
		<phase duration="3"  state="rrrrYYYY"/>
		<phase duration="2"  state="uuuurrrr"/>
		<phase duration="50" state="GGGGrrrr"/>
		<phase duration="3"  state="YYYYrrrr"/>
		<phase duration="2"  state="rrrruuuu"/>
		<phase duration="55" state="rrrrGGGG"/>
	</tlLogic>

	<WAUT startProg="plan2_tls_13_51" refTime="0" id="prog_tls_13_51">
        <wautSwitch to="plan3_tls_13_51" time="18000"/>
        <wautSwitch to="plan4_tls_13_51" time="32400"/>
        <wautSwitch to="plan2_tls_13_51" time="0"/>
    </WAUT>

    <wautJunction junctionID="tls_13_51" wautID="prog_tls_13_51"/>


    <tlLogic id="tls_13_53" type="static" programID="plan2_tls_13_53" offset="0">
		<phase duration="18" state="rrrrrGGGGGG"/>
		<phase duration="3"  state="rrrrrYYYYYY"/>
		<phase duration="2"  state="uuuuurrrrrr"/>
		<phase duration="51" state="GGGGGrrrrrr"/>
		<phase duration="3"  state="YYYYYrrrrrr"/>
		<phase duration="2"  state="rrrrruuuuuu"/>
		<phase duration="41" state="rrrrrGGGGGG"/>
	</tlLogic>
	<tlLogic id="tls_13_53" type="static" programID="plan3_tls_13_53" offset="0">
		<phase duration="11" state="rrrrrGGGGGG"/>
		<phase duration="3"  state="rrrrrYYYYYY"/>
		<phase duration="2"  state="uuuuurrrrrr"/>
		<phase duration="51" state="GGGGGrrrrrr"/>
		<phase duration="3"  state="YYYYYrrrrrr"/>
		<phase duration="2"  state="rrrrruuuuuu"/>
		<phase duration="48" state="rrrrrGGGGGG"/>
	</tlLogic>
	<tlLogic id="tls_13_53" type="static" programID="plan4_tls_13_53" offset="0">
		<phase duration="5"  state="rrrrrGGGGGG"/>
		<phase duration="3"  state="rrrrrYYYYYY"/>
		<phase duration="2"  state="uuuuurrrrrr"/>
		<phase duration="50" state="GGGGGrrrrrr"/>
		<phase duration="3"  state="YYYYYrrrrrr"/>
		<phase duration="2"  state="rrrrruuuuuu"/>
		<phase duration="55" state="rrrrrGGGGGG"/>
	</tlLogic>

	<WAUT startProg="plan2_tls_13_53" refTime="0" id="prog_tls_13_53">
        <wautSwitch to="plan3_tls_13_53" time="18000"/>
        <wautSwitch to="plan4_tls_13_53" time="32400"/>
        <wautSwitch to="plan2_tls_13_53" time="0"/>
    </WAUT>

    <wautJunction junctionID="tls_13_53" wautID="prog_tls_13_53"/>




    <tlLogic id="tls_7_45" type="static" programID="plan2_tls_7_45" offset="0">
		<phase duration="20" state="rrrrrrrrrrrrGGGGGG"/>
		<phase duration="3"  state="rrrrrrrrrrrrYYYYYY"/>
		<phase duration="2"  state="rrrrrrrrrrrrrrrrrr"/>
		<phase duration="2"  state="uuuuuuuuuuuurrrrrr"/>
		<phase duration="60" state="GGGGGGGGGGGGrrrrrr"/>
		<phase duration="3"  state="GGGGGYYYYYYYrrrrrr"/>
		<phase duration="10" state="GGGGGrrrrrrrrrrrrr"/>
		<phase duration="3"  state="YYYYYrrrrrrrrrrrrr"/>
		<phase duration="1"  state="rrrrrrrrrrrrrrrrrr"/>
		<phase duration="2"  state="rrrrrrrrrrrruuuuuu"/>
		<phase duration="14" state="rrrrrrrrrrrrGGGGGG"/>
	</tlLogic>
	<tlLogic id="tls_7_45" type="static" programID="plan3_tls_7_45" offset="0">
		<phase duration="35" state="GGGGGGGGGGGGrrrrrr"/>
		<phase duration="3"  state="GGGGGYYYYYYYrrrrrr"/>
		<phase duration="10" state="GGGGGrrrrrrrrrrrrr"/>
		<phase duration="3"  state="YYYYYrrrrrrrrrrrrr"/>
		<phase duration="1"  state="rrrrrrrrrrrrrrrrrr"/>
		<phase duration="2"  state="rrrrrrrrrrrruuuuuu"/>
		<phase duration="37" state="rrrrrrrrrrrrGGGGGG"/>
		<phase duration="3"  state="rrrrrrrrrrrrYYYYYY"/>
		<phase duration="1"  state="rrrrrrrrrrrrrrrrrr"/>
		<phase duration="2"  state="uuuuuuuuuuuurrrrrr"/>
		<phase duration="23" state="GGGGGGGGGGGGrrrrrr"/>
	</tlLogic>
	<tlLogic id="tls_7_45" type="static" programID="plan4_tls_7_45" offset="0">
		<phase duration="2"  state="rrrrrrrrrrrrGGGGGG"/>
		<phase duration="3"  state="rrrrrrrrrrrrYYYYYY"/>
		<phase duration="1"  state="rrrrrrrrrrrrrrrrrr"/>
		<phase duration="2"  state="uuuuuuuuuuuurrrrrr"/>
		<phase duration="63" state="GGGGGGGGGGGGrrrrrr"/>
		<phase duration="3"  state="GGGGGYYYYYYYrrrrrr"/>
		<phase duration="10" state="GGGGGrrrrrrrrrrrrr"/>
		<phase duration="3"  state="YYYYYrrrrrrrrrrrrr"/>
		<phase duration="2"  state="rrrrrrrrrrrrrrrrrr"/>
		<phase duration="2"  state="rrrrrrrrrrrruuuuuu"/>
		<phase duration="29" state="rrrrrrrrrrrrGGGGGG"/>
	</tlLogic>

	<WAUT startProg="plan2_tls_7_45" refTime="0" id="prog_tls_7_45">
        <wautSwitch to="plan3_tls_7_45" time="18000"/>
        <wautSwitch to="plan4_tls_7_45" time="32400"/>
        <wautSwitch to="plan2_tls_7_45" time="0"/>
    </WAUT>

    <wautJunction junctionID="tls_7_45" wautID="prog_tls_7_45"/>



    <tlLogic id="tls_7_46" type="static" programID="plan2_tls_7_46" offset="0">
		<phase duration="24" state="rrrrrGGGGGGrrr"/>
		<phase duration="3"  state="rrrrrYYYYYYrrr"/>
		<phase duration="1"  state="rrrrrrrrrrrrrr"/>
		<phase duration="2"  state="uuuuurrrrrruuu"/>
		<phase duration="71" state="GGGGGrrrrrrGGG"/>
		<phase duration="3"  state="YYYYYrrrrrrYYY"/>
		<phase duration="2"  state="rrrrruuuuuurrr"/>
		<phase duration="14" state="rrrrrGGGGGGrrr"/>
	</tlLogic>
	<tlLogic id="tls_7_46" type="static" programID="plan3_tls_7_46" offset="0">
		<phase duration="53" state="GGGGGrrrrrrGGG"/>
		<phase duration="3"  state="YYYYYrrrrrrYYY"/>
		<phase duration="2"  state="rrrrruuuuuurrr"/>
		<phase duration="33" state="rrrrrGGGGGGrrr"/>
		<phase duration="3"  state="rrrrrYYYYYYrrr"/>
		<phase duration="1"  state="rrrrrrrrrrrrrr"/>
		<phase duration="2"  state="uuuuurrrrrruuu"/>
		<phase duration="23" state="GGGGGrrrrrrGGG"/>
	</tlLogic>
	<tlLogic id="tls_7_46" type="static" programID="plan4_tls_7_46" offset="0">
		<phase duration="6" state="rrrrrGGGGGGrrr"/>
		<phase duration="3"  state="rrrrrYYYYYYrrr"/>
		<phase duration="1"  state="rrrrrrrrrrrrrr"/>
		<phase duration="2"  state="uuuuurrrrrruuu"/>
		<phase duration="76" state="GGGGGrrrrrrGGG"/>
		<phase duration="3"  state="YYYYYrrrrrrYYY"/>
		<phase duration="2"  state="rrrrruuuuuurrr"/>
		<phase duration="27" state="rrrrrGGGGGGrrr"/>
	</tlLogic>

	<WAUT startProg="plan2_tls_7_46" refTime="0" id="prog_tls_7_46">
        <wautSwitch to="plan3_tls_7_46" time="18000"/>
        <wautSwitch to="plan4_tls_7_46" time="32400"/>
        <wautSwitch to="plan2_tls_7_46" time="0"/>
    </WAUT>

    <wautJunction junctionID="tls_7_46" wautID="prog_tls_7_46"/>



    <tlLogic id="tls_7_47" type="static" programID="plan2_tls_7_47" offset="0">
		<phase duration="28" state="rrrrrGGGGGGGrrr"/>									
		<phase duration="3"  state="rrrrrYYYYYYYrrr"/>
		<phase duration="2"  state="uuuuurrrrrrruuu"/>
		<phase duration="66" state="GGGGGrrrrrrrGGG"/>
		<phase duration="3"  state="YYYYYrrrrrrrYYY"/>
		<phase duration="2"  state="rrrrruuuuuuurrr"/>
		<phase duration="16" state="rrrrrGGGGGGGrrr"/>
	</tlLogic>
	<tlLogic id="tls_7_47" type="static" programID="plan3_tls_7_47" offset="0">
		<phase duration="47" state="GGGGGrrrrrrrGGG"/>
		<phase duration="3"  state="YYYYYrrrrrrrYYY"/>
		<phase duration="2"  state="rrrrruuuuuuurrr"/>
		<phase duration="40" state="rrrrrGGGGGGGrrr"/>
		<phase duration="3"  state="rrrrrYYYYYYYrrr"/>
		<phase duration="2"  state="uuuuurrrrrrruuu"/>
		<phase duration="23" state="GGGGGrrrrrrrGGG"/>
	</tlLogic>
	<tlLogic id="tls_7_47" type="static" programID="plan4_tls_7_47" offset="0">
		<phase duration="10" state="rrrrrGGGGGGGrrr"/>									
		<phase duration="3"  state="rrrrrYYYYYYYrrr"/>
		<phase duration="2"  state="uuuuurrrrrrruuu"/>
		<phase duration="67" state="GGGGGrrrrrrrGGG"/>
		<phase duration="3"  state="YYYYYrrrrrrrYYY"/>
		<phase duration="2"  state="rrrrruuuuuuurrr"/>
		<phase duration="33" state="rrrrrGGGGGGGrrr"/>
	</tlLogic>

	<WAUT startProg="plan2_tls_7_47" refTime="0" id="prog_tls_7_47">
        <wautSwitch to="plan3_tls_7_47" time="18000"/>
        <wautSwitch to="plan4_tls_7_47" time="32400"/>
        <wautSwitch to="plan2_tls_7_47" time="0"/>
    </WAUT>

    <wautJunction junctionID="tls_7_47" wautID="prog_tls_7_47"/>


    <tlLogic id="tls_7_49" type="static" programID="plan2_tls_7_49" offset="0">
		<phase duration="22" state="GGrrrrrrrr"/>									
		<phase duration="3"  state="YYrrrrrrrr"/>
		<phase duration="1"  state="rrrrrrrrrr"/>
		<phase duration="2"  state="rruuuuuuuu"/>
		<phase duration="74" state="rrGGGGGGGG"/>
		<phase duration="2"  state="rrYYYYYYYY"/>
		<phase duration="2"  state="uurrrrrrrr"/>
		<phase duration="14" state="GGuuuuuuuu"/>
	</tlLogic>
	<tlLogic id="tls_7_49" type="static" programID="plan3_tls_7_49" offset="0">
		<phase duration="64" state="rrGGGGGGGG"/>
		<phase duration="3"  state="rrYYYYYYYY"/>
		<phase duration="2"  state="uurrrrrrrr"/>
		<phase duration="30" state="GGuuuuuuuu"/>
		<phase duration="3"  state="YYrrrrrrrr"/>
		<phase duration="2"  state="rruuuuuuuu"/>
		<phase duration="16" state="rrGGGGGGGG"/>
	</tlLogic>
	<tlLogic id="tls_7_49" type="static" programID="plan4_tls_7_49" offset="0">
		<phase duration="11" state="GGrrrrrrrr"/>				
		<phase duration="3"  state="YYrrrrrrrr"/>
		<phase duration="2"  state="rruuuuuuuu"/>
		<phase duration="71" state="rrGGGGGGGG"/>
		<phase duration="2"  state="rrYYYYYYYY"/>
		<phase duration="2"  state="uurrrrrrrr"/>
		<phase duration="29" state="GGuuuuuuuu"/>
	</tlLogic>

	<WAUT startProg="plan2_tls_7_49" refTime="0" id="prog_tls_7_49">
        <wautSwitch to="plan3_tls_7_49" time="18000"/>
        <wautSwitch to="plan4_tls_7_49" time="32400"/>
        <wautSwitch to="plan2_tls_7_49" time="0"/>
    </WAUT>

    <wautJunction junctionID="tls_7_49" wautID="prog_tls_7_49"/>


    <tlLogic id="tls_7_53" type="static" programID="plan2_tls_7_53" offset="0">
		<phase duration="24" state="rrrrrGGGrrrrGGGG"/>
		<phase duration="3"  state="rrrrrYYYrrrrYYYY"/>
		<phase duration="1"  state="rrrrrrrrrrrrrrrr"/>
		<phase duration="2"  state="uuuuurrruuuurrrr"/>
		<phase duration="71" state="GGGGGrrrGGGGrrrr"/>
		<phase duration="3"  state="YYYYYrrrYYYYrrrr"/>
		<phase duration="2"  state="rrrrruuurrrruuuu"/>
		<phase duration="14" state="rrrrrGGGrrrrGGGG"/>
	</tlLogic>
	<tlLogic id="tls_7_53" type="static" programID="plan3_tls_7_53" offset="0">
		<phase duration="53" state="GGGGGrrrGGGGrrrr"/>
		<phase duration="3"  state="YYYYYrrrYYYYrrrr"/>
		<phase duration="2"  state="rrrrruuurrrruuuu"/>
		<phase duration="33" state="rrrrrGGGrrrrGGGG"/>
		<phase duration="3"  state="rrrrrYYYrrrrYYYY"/>
		<phase duration="1"  state="rrrrrrrrrrrrrrrr"/>
		<phase duration="2"  state="uuuuurrruuuurrrr"/>
		<phase duration="23" state="GGGGGrrrGGGGrrrr"/>
	</tlLogic>
	<tlLogic id="tls_7_53" type="static" programID="plan4_tls_7_53" offset="0">
		<phase duration="6"  state="rrrrrGGGrrrrGGGG"/>
		<phase duration="3"  state="rrrrrYYYrrrrYYYY"/>
		<phase duration="1"  state="rrrrrrrrrrrrrrrr"/>
		<phase duration="2"  state="uuuuurrruuuurrrr"/>
		<phase duration="76" state="GGGGGrrrGGGGrrrr"/>
		<phase duration="3"  state="YYYYYrrrYYYYrrrr"/>
		<phase duration="2"  state="rrrrruuurrrruuuu"/>
		<phase duration="27" state="rrrrrGGGrrrrGGGG"/>
	</tlLogic>

	<WAUT startProg="plan2_tls_7_53" refTime="0" id="prog_tls_7_53">
        <wautSwitch to="plan3_tls_7_53" time="18000"/>
        <wautSwitch to="plan4_tls_7_53" time="32400"/>
        <wautSwitch to="plan2_tls_7_53" time="0"/>
    </WAUT>

    <wautJunction junctionID="tls_7_53" wautID="prog_tls_7_53"/>

</additional>