<?xml version="1.0" encoding="UTF-8"?>

<configuration xmlns:xsi="http://www.w3.org/2001/XMLSchema-instance" xsi:noNamespaceSchemaLocation="http://sumo.dlr.de/xsd/sumoConfiguration.xsd">

    <input>
        <net-file value="bogota2.net.xml"/>
        <!-- <additional-files value="tls.add.xml,routes.rou.xml,emitters.rou.xml,validation_det.xml"/> -->
        <additional-files value="tls.add.xml,routes.rou.xml"/>
    </input>

    <time>
        <begin value="0"/>
        <end value="46800"/>
        <!-- <end value="46800"/> -->
    </time>   

</configuration>
